###################################################################################################
#          Introduction
###################################################################################################

# In this .tcl file, the FourNodeQuad2D3DOF element is utilized as part of an interior beam-to-column subassembly.
# The element was developed by Dr. A.Skiadopoulos and Prof. D.G.Lignos at École Polytechnique Fédérale de Lausanne (EPFL).
# More details are found in Skiadopoulos and Lignos (2022).
# The interior subassembly modeled is SPEC-6 tested by Ricles et al. (2004) which features a highly inelastic panel zone.
# In this example, the subassembly is subjected to cyclic loading, similarly to the test.

# As an output: 1. the imposed displacement at the top of the column is extracted.
#			 2. the reactions of the beams and the column extracted.
#			 3. four different sets of 4-node displacements within the panel zone are extracted. From this, the panel distortion is deduced per set.
# References:

# Ricles, J. M., Zhang, X., Lu, L.-W., and Fisher, J. W. (2004). 
# Development of seismic guidelines for deep-column steel moment connections.
# ATLSS Report No. 04-13, Lehigh University, Bethlehem, PA, USA.

# Skiadopoulos, A., and Lignos, D. G. (2022). 
# Seismic demands of steel special moment frames with inelas-tic beam-to-column web panel zones. 
# Earthquake Engineering & Structural Dynamics. https://doi.org/10.1002/eqe.3629.

###################################################################################################
#          Set Up & Source Definition									  
###################################################################################################

# This monotonic loading subassembly SPEC-6 runs perfectly and in decend time

	wipe all;						# clear memory of past model definitions
	model BasicBuilder -ndm 2 -ndf 3;	# Define the model builder, ndm = #dimension, ndf = #dofs
	source DisplayModel2D.tcl;		# procedure for displaying a 2D perspective of model
	source DisplayPlane.tcl;			# procedure for displaying a plane in a model

###################################################################################################
#          Define Section Properties											  
###################################################################################################

# define material properties
	set E 210000.0;							# steel Young's modulus (N/mm2)	
	set G [expr $E/2/1.3];						# steel Young's modulus (N/mm2)
	set Erigid 2100000.0;						# steel Young's modulus for rigid links (N/mm2)
# define column section W24x131 for Story 1 & 2
	set Acol  24792.78912;						# cross-sectional area (mm2)
	set Avy   9188.175172;						# cross-sectional area (mm2)
	set Icol  [expr 1670548916];					# moment of inertia of the whole section (not RBS) (mm4)	
	set dcol  622.3;							# depth (mm)
	set bfcol 327.66;							# flange width (mm)
	set tfcol 24.38;							# flange thickness (mm)
	set twcol 15.37;							# web thickness (mm)	
# define beam section W30x108 for Floor 1
	set Abeam  [expr 31.7*25.4*25.4];				# cross-sectional area (mm2)
	set Ibeam  [expr 4470*25.4*25.4*25.4*25.4*1];	# moment of inertia of the whole section (not RBS) (mm4)
	set dbeam  756.92;					   	 	# depth (mm)
	set bbeam  266.7;   	 					# flange width (mm)
	set tfb    19.304;   	 					# flange thickness (mm)
	set twb	 13.84;	   	 					# web thickness (mm)
	set arbs	 190.5;   	 					# a RBS (mm)
	set brbs	 571.5;   	 					# b RBS (mm)	
	set bbeam2 202.69;   	 					# segment 2 of RBS (mm)
	set bbeam3 138.68;	   	 					# segment 3 of RBS (mm)	
	
###################################################################################################
#          Define Subassembly Geometry									  
###################################################################################################

# define structure-geometry parameters
	set NStories 2;					# number of stories
	set NBays 2;						# number of frame bays
	set WBay      [expr 8991.6/2];		# bay width (mm)
	set HStory    [expr 3962.4/2];		# story height (mm)
	set HBuilding [expr $HStory*2];		# height of subassembly
# calculate locations of beam-column joint centerlines:
	set Pier1  0.0;		# leftmost column line
	set Pier2  [expr $Pier1 + $WBay];
	set Pier3  [expr $Pier2 + $WBay];	
	set Floor1 0.0;		# ground floor
	set Floor2 [expr $Floor1 + $HStory];
	set Floor3 [expr $Floor2 + $HStory];
# calculate panel zone dimensions
	set pzlat23  [expr $dcol/2.0];			# lateral dist from CL of beam-col joint to edge of panel zone (= half the column depth)
	set pzvert23 [expr ($dbeam-2*$tfb)/2.0];	# vert dist from CL of beam-col joint to edge of panel zone (= half the beam depth)
# set up geometric transformation of elements
	set PDeltaTransf 1;
	geomTransf PDelta $PDeltaTransf; 	# PDelta transformation
	
###################################################################################################
#          Define Nodes & Boundary Conditions							  
###################################################################################################

# define nodes and assign masses to beam-column intersections of frame
	# command:  node nodeID xcoord ycoord -mass mass_dof1 mass_dof2 mass_dof3
	# nodeID convention:  "xy" where x = Pier # and y = Floor # 
	node 21 $Pier2 $Floor1;
	node 23 $Pier2 $Floor3;
	node 12 $Pier1 $Floor2;
	node 32 $Pier3 $Floor2;
	
# define extra nodes for the fiber element	
	# beam hinges at Floor 2
	node 220 [expr $Pier2 - $pzlat23 - $arbs - $brbs]		$Floor2
	node 221 [expr $Pier2 - $pzlat23 - $arbs - $brbs*2/3] 	$Floor2
	node 222 [expr $Pier2 - $pzlat23 - $arbs - $brbs*1/3] 	$Floor2
	node 223 [expr $Pier2 - $pzlat23 - $arbs] 			$Floor2
	
	node 224 [expr $Pier2 + $pzlat23 + $arbs] 			$Floor2
	node 225 [expr $Pier2 + $pzlat23 + $arbs + $brbs*1/3] 	$Floor2
	node 226 [expr $Pier2 + $pzlat23 + $arbs + $brbs*2/3] 	$Floor2
	node 227 [expr $Pier2 + $pzlat23 + $arbs + $brbs] 	$Floor2
	
	node 2205 [expr $Pier2 + $pzlat23] $Floor2;
	node 2210 [expr $Pier2 - $pzlat23] $Floor2;
# assign boundary conditions 
	# command:  fix nodeID dxFixity dyFixity rzFixity
	# fixity values: 1 = constrained; 0 = unconstrained
	# pinned base of the subassembly;
	fix 12 0 1 0;
	fix 21 1 1 0;
	fix 32 0 1 0;
	
############################################################################
#              Panel Zone Shell Nodes & Elements					                			   
############################################################################

puts "Panel Zone Shell ..."
node 100100 4184.650 1622.044;
node 200100 4209.034 1622.044;
node 300100 4237.711 1622.044;
node 400100 4266.387 1622.044;
node 500100 4295.064 1622.044;
node 600100 4323.740 1622.044;
node 700100 4352.417 1622.044;
node 800100 4381.094 1622.044;
node 900100 4409.770 1622.044;
node 910100 4438.447 1622.044;
node 911100 4467.123 1622.044;
node 912100 4495.800 1622.044;
node 913100 4524.477 1622.044;
node 914100 4553.153 1622.044;
node 915100 4581.830 1622.044;
node 916100 4610.506 1622.044;
node 917100 4639.183 1622.044;
node 918100 4667.860 1622.044;
node 919100 4696.536 1622.044;
node 920100 4725.213 1622.044;
# ... 624 like lines cut

node 10010000 4184.650 1622.044;
node 100280000 4184.650 2340.356;
node 92310000 4806.950 1622.044;
node 923280000 4806.950 2340.356;

#Rotational Fixity for the nodes;
puts "Rotational Fixity";

fix 100200 0 0 1;
fix 200200 0 0 1;
fix 300200 0 0 1;
fix 400200 0 0 1;
fix 500200 0 0 1;
fix 600200 0 0 1;
fix 700200 0 0 1;
fix 800200 0 0 1;
fix 900200 0 0 1;
fix 910200 0 0 1;
fix 911200 0 0 1;
fix 912200 0 0 1;
fix 913200 0 0 1;
fix 914200 0 0 1;
fix 915200 0 0 1;
fix 916200 0 0 1;
fix 917200 0 0 1;
fix 918200 0 0 1;
fix 919200 0 0 1;
fix 920200 0 0 1;
# ... 578 like lines cut
	
#Material Definition; (in newer Opensees version, this model is named as:UVCplanestress: https://opensees.berkeley.edu/wiki/index.php/UVCplanestress_(Updated_Voce-Chaboche))
nDMaterial RESSCppLabPS 1 210000.0 0.3 292.0 100.72 8.0 0.0 1.0 2 11608.2 145.2 1026.33 4.68;
nDMaterial RESSCppLabPS 2 210000.0 0.3 305.0 77.52 9.29 0.0 1.0 2 8716.08 118.47 1182.05 5.22;

puts "Elements";
#Element Definition;
element FourNodeQuad2D3DOF 1010 100100 200100 200200 100200 327.660 "PlaneStress" 1;
element FourNodeQuad2D3DOF 2010 200100 300100 300200 200200 28.067 "PlaneStress" 2;
element FourNodeQuad2D3DOF 3010 300100 400100 400200 300200 28.067 "PlaneStress" 2;
element FourNodeQuad2D3DOF 4010 400100 500100 500200 400200 28.067 "PlaneStress" 2;
element FourNodeQuad2D3DOF 5010 500100 600100 600200 500200 28.067 "PlaneStress" 2;
element FourNodeQuad2D3DOF 6010 600100 700100 700200 600200 28.067 "PlaneStress" 2;
element FourNodeQuad2D3DOF 7010 700100 800100 800200 700200 28.067 "PlaneStress" 2;
element FourNodeQuad2D3DOF 8010 800100 900100 900200 800200 28.067 "PlaneStress" 2;
element FourNodeQuad2D3DOF 9010 900100 910100 910200 900200 28.067 "PlaneStress" 2;
element FourNodeQuad2D3DOF 10010 910100 911100 911200 910200 28.067 "PlaneStress" 2;
element FourNodeQuad2D3DOF 11010 911100 912100 912200 911200 28.067 "PlaneStress" 2;
element FourNodeQuad2D3DOF 12010 912100 913100 913200 912200 28.067 "PlaneStress" 2;
element FourNodeQuad2D3DOF 13010 913100 914100 914200 913200 28.067 "PlaneStress" 2;
element FourNodeQuad2D3DOF 14010 914100 915100 915200 914200 28.067 "PlaneStress" 2;
element FourNodeQuad2D3DOF 15010 915100 916100 916200 915200 28.067 "PlaneStress" 2;
element FourNodeQuad2D3DOF 16010 916100 917100 917200 916200 28.067 "PlaneStress" 2;
element FourNodeQuad2D3DOF 17010 917100 918100 918200 917200 28.067 "PlaneStress" 2;
element FourNodeQuad2D3DOF 18010 918100 919100 919200 918200 28.067 "PlaneStress" 2;
element FourNodeQuad2D3DOF 19010 919100 920100 920200 919200 28.067 "PlaneStress" 2;
element FourNodeQuad2D3DOF 20010 920100 921100 921200 920200 28.067 "PlaneStress" 2;
# ... 574 like lines cut
	
#Rigid elements;
puts "Rigid Elements";	

# Top column line
element elasticBeamColumn 1  1002800 2002800 $Acol $Erigid $Icol $PDeltaTransf;
element elasticBeamColumn 2  2002800 3002800 $Acol $Erigid $Icol $PDeltaTransf;
element elasticBeamColumn 3  3002800 4002800 $Acol $Erigid $Icol $PDeltaTransf;
element elasticBeamColumn 4  4002800 5002800 $Acol $Erigid $Icol $PDeltaTransf;
element elasticBeamColumn 5  5002800 6002800 $Acol $Erigid $Icol $PDeltaTransf;
element elasticBeamColumn 6  6002800 7002800 $Acol $Erigid $Icol $PDeltaTransf;
element elasticBeamColumn 7  7002800 8002800 $Acol $Erigid $Icol $PDeltaTransf;
element elasticBeamColumn 8  8002800 9002800 $Acol $Erigid $Icol $PDeltaTransf;
element elasticBeamColumn 9  9002800 9102800 $Acol $Erigid $Icol $PDeltaTransf;
element elasticBeamColumn 10 9102800 9112800 $Acol $Erigid $Icol $PDeltaTransf;
element elasticBeamColumn 11 9112800 9122800 $Acol $Erigid $Icol $PDeltaTransf;
element elasticBeamColumn 13 9122800 9132800 $Acol $Erigid $Icol $PDeltaTransf;
element elasticBeamColumn 14 9132800 9142800 $Acol $Erigid $Icol $PDeltaTransf;
element elasticBeamColumn 15 9142800 9152800 $Acol $Erigid $Icol $PDeltaTransf;
element elasticBeamColumn 16 9152800 9162800 $Acol $Erigid $Icol $PDeltaTransf;
element elasticBeamColumn 17 9162800 9172800 $Acol $Erigid $Icol $PDeltaTransf;
element elasticBeamColumn 18 9172800 9182800 $Acol $Erigid $Icol $PDeltaTransf;
element elasticBeamColumn 19 9182800 9192800 $Acol $Erigid $Icol $PDeltaTransf;
element elasticBeamColumn 20 9192800 9202800 $Acol $Erigid $Icol $PDeltaTransf;
element elasticBeamColumn 21 9202800 9212800 $Acol $Erigid $Icol $PDeltaTransf;
element elasticBeamColumn 22 9212800 9222800 $Acol $Erigid $Icol $PDeltaTransf;
element elasticBeamColumn 23 9222800 9232800 $Acol $Erigid $Icol $PDeltaTransf;

# Bottom column line
element elasticBeamColumn 24 100100 200100 $Acol $Erigid $Icol $PDeltaTransf;
element elasticBeamColumn 25 200100 300100 $Acol $Erigid $Icol $PDeltaTransf;
element elasticBeamColumn 26 300100 400100 $Acol $Erigid $Icol $PDeltaTransf;
element elasticBeamColumn 27 400100 500100 $Acol $Erigid $Icol $PDeltaTransf;
element elasticBeamColumn 28 500100 600100 $Acol $Erigid $Icol $PDeltaTransf;
element elasticBeamColumn 29 600100 700100 $Acol $Erigid $Icol $PDeltaTransf;
element elasticBeamColumn 30 700100 800100 $Acol $Erigid $Icol $PDeltaTransf;
element elasticBeamColumn 31 800100 900100 $Acol $Erigid $Icol $PDeltaTransf;
element elasticBeamColumn 32 900100 910100 $Acol $Erigid $Icol $PDeltaTransf;
element elasticBeamColumn 33 910100 911100 $Acol $Erigid $Icol $PDeltaTransf;
element elasticBeamColumn 34 911100 912100 $Acol $Erigid $Icol $PDeltaTransf;
element elasticBeamColumn 36 912100 913100 $Acol $Erigid $Icol $PDeltaTransf;
element elasticBeamColumn 37 913100 914100 $Acol $Erigid $Icol $PDeltaTransf;
element elasticBeamColumn 38 914100 915100 $Acol $Erigid $Icol $PDeltaTransf;
element elasticBeamColumn 39 915100 916100 $Acol $Erigid $Icol $PDeltaTransf;
element elasticBeamColumn 41 916100 917100 $Acol $Erigid $Icol $PDeltaTransf;
element elasticBeamColumn 42 917100 918100 $Acol $Erigid $Icol $PDeltaTransf;
element elasticBeamColumn 43 918100 919100 $Acol $Erigid $Icol $PDeltaTransf;
element elasticBeamColumn 44 919100 920100 $Acol $Erigid $Icol $PDeltaTransf;
element elasticBeamColumn 45 920100 921100 $Acol $Erigid $Icol $PDeltaTransf;
element elasticBeamColumn 46 921100 922100 $Acol $Erigid $Icol $PDeltaTransf;	
element elasticBeamColumn 47 922100 923100 $Acol $Erigid $Icol $PDeltaTransf;

# Case 3 (connected in the column rigid link with zerolength element)

element elasticBeamColumn 48 2210  10010000     $Acol $Erigid $Icol $PDeltaTransf;
element elasticBeamColumn 49 2210  100280000    $Acol $Erigid $Icol $PDeltaTransf;
element elasticBeamColumn 50 2205  92310000     $Acol $Erigid $Icol $PDeltaTransf;
element elasticBeamColumn 51 2205  923280000    $Acol $Erigid $Icol $PDeltaTransf;

equalDOF 100100 	10010000    1 2;  # be careful with the order. If you change it, it does not run
equalDOF 1002800	100280000   1 2;
equalDOF 923100 	92310000    1 2;
equalDOF 9232800	923280000   1 2;

###################################################################################################
#          Define Beam and Column Elements							  
###################################################################################################
	
# define elastic column elements using "element" command
	# command: element elasticBeamColumn $eleID $iNode $jNode $A $E $I $transfID
	# Columns Story 1
	element ElasticTimoshenkoBeam 100 9122800	23      $E $G $Acol $Icol $Avy $PDeltaTransf
	element ElasticTimoshenkoBeam 101 21	     912100  $E $G $Acol $Icol $Avy $PDeltaTransf
# define fiber beam elements
	# Beams Story 1
		
	# Ιn newer Opensees version, this model is named as:UVCuniaxial: https://opensees.berkeley.edu/wiki/index.php/UVCuniaxial_(Updated_Voce-Chaboche))	
	uniaxialMaterial RESSCppLab 3 210000.0 300.0 100.72 8.0 0.0 1.0 2 11608.2 145.2 1026.33 4.68;
	
	section fiberSec 1 {;
	patch rect 3 1 8	0					0							$tfb				$bbeam						; 			# top web
	patch rect 3 8 1 	$tfb				[expr $bbeam/2 - $twb/2] 	[expr $dbeam-$tfb]	[expr $bbeam/2 + $twb/2]	; 			# flange
	patch rect 3 1 8 	[expr $dbeam-$tfb]	0							$dbeam				$bbeam						; 			# bottom web
                                                                        
    };	                                                                
	                                                                    
	section fiberSec 2 {;	                                            
	patch rect 3 1 8	0					0							$tfb				$bbeam2						; 			# top web
	patch rect 3 8 1 	$tfb				[expr $bbeam2/2 - $twb/2] 	[expr $dbeam-$tfb]	[expr $bbeam2/2 + $twb/2]	; 			# flange
	patch rect 3 1 8 	[expr $dbeam-$tfb]	0							$dbeam				$bbeam2						; 			# bottom web
                                                                        
    };	                                                                
	                                                                    
	section fiberSec 3 {;	                                            
	patch rect 3 1 8	0					0							$tfb				$bbeam3						; 			# top web
	patch rect 3 8 1 	$tfb				[expr $bbeam3/2 - $twb/2] 	[expr $dbeam-$tfb]	[expr $bbeam3/2 + $twb/2]	; 			# flange
	patch rect 3 1 8 	[expr $dbeam-$tfb]	0							$dbeam				$bbeam3						; 			# bottom web

    };		
	
	element nonlinearBeamColumn 12220   12  220  8 1 $PDeltaTransf
	element nonlinearBeamColumn 220221  220 221  8 2 $PDeltaTransf
	element nonlinearBeamColumn 221222  221 222  8 3 $PDeltaTransf
	element nonlinearBeamColumn 222223  222 223  8 2 $PDeltaTransf
	element nonlinearBeamColumn 2232210 223 2210 8 1 $PDeltaTransf
	
	element nonlinearBeamColumn 2205224 2205 224  8 1 $PDeltaTransf
	element nonlinearBeamColumn 224225  224  225  8 2 $PDeltaTransf
	element nonlinearBeamColumn 225226  225  226  8 3 $PDeltaTransf
	element nonlinearBeamColumn 226227  226  227  8 2 $PDeltaTransf
	element nonlinearBeamColumn 22732   227  32   8 1 $PDeltaTransf
	
############################################################################
#              Recorders					                			   
############################################################################
puts "Recorders ..."
	recorder Element -file time.txt -time;		# record time only once
# record panel zone top displacements	
	recorder Node -file Edge_Disp.txt -node 912100 9122800 -dof 1 disp;
# record shear reactions
	recorder Node -file Reactions_Col.txt -node 21 -dof 1 reaction;
# record shear reactions
	recorder Node -file Reactions_Beam.txt -node 12 32 -dof 2 reaction;
# record shear reactions
	recorder Node -file Top_Displacement.txt -node 23 -dof 1 disp;
# record panel zone node displacements
	recorder Node -file Panel_Zone_Disp.txt -node 300500 921500 9212500 3002500 -dof 1 2 disp;	
	recorder Node -file Panel_Zone_Disp_2.txt -node 100100 923100 9232800 1002800 -dof 1 2 disp;	
	recorder Node -file Panel_Zone_Disp_3.txt -node 200200 922200 9222700 2002700 -dof 1 2 disp;	
	recorder Node -file Panel_Zone_Disp_4.txt -node 300300 921300 9212600 3002600 -dof 1 2 disp;	

#######################################################################################
#                                                                                     #
#                              Analysis Section			                          #
#                                                                                     #
#######################################################################################

puts "Running Analysis..."
# assign lateral loads and create load pattern:  use ASCE 7-10 distribution
  set CtrlNode 23
  set CtrlDOF 1;
  pattern Plain 200 Linear {			
	 load $CtrlNode 1.0 0.0 0.0;
  }
# display the model with the node numbers
  puts "Display ..."
  set ViewScale 20;
  DisplayModel2D DeformedShape $ViewScale ;	# display deformed shape, the scaling factor needs to be adjusted for each model

# analysis commands
  constraints Plain;			# how it handles boundary conditions
  numberer RCM;				# renumber dof's to minimize band-width (optimization)
  system BandGeneral;			# how to store and solve the system of equations in the analysis (large model: try UmfPack)
  test EnergyIncr 1.0e-6 10000;	# type of convergence criteria with tolerance, max iterations
  algorithm KrylovNewton;		# use Newton's solution algorithm: updates tangent stiffness at every iteration
# Loading Protocol
  set disp [list 0	3.715	7.429	11.144	14.859	11.144	7.429	3.715	0	-3.715	-7.429	-11.144	-14.859	-11.144	-7.429	-3.715	0	3.715	7.429	11.144	14.859	11.144	7.429	3.715	0	-3.715	-7.429	-11.144	-14.859	-11.144	-7.429	-3.715	0	3.715	7.429	11.144	14.859	11.144	7.429	3.715	0	-3.715	-7.429	-11.144	-14.859	-11.144	-7.429	-3.715	0	3.715	7.429	11.144	14.859	11.144	7.429	3.715	0	-3.715	-7.429	-11.144	-14.859	-
  set LoopLength [llength $disp]
  set h 1

# Run the static cyclic analysis
  set NSteps 1;
  set dU1 0;

  while {$h < $LoopLength} {
	# List is zero index
	set index [expr $h]
	# We need to relative deformation of the loading protocol
	# Subtract dUi+1 - dUi
	set D1 [lindex $disp $index];
	set D2 [lindex $disp $index-1];
	set dU1 [expr -($D1-$D2)];
	
	# Create Nsteps from Amplitude to Amplitude
	set dU [expr ($dU1)/$NSteps]
	
	# Displacement Control Integrator
	integrator DisplacementControl $CtrlNode $CtrlDOF $dU
	analysis Static
     puts "increment = [expr {$h}] / [expr {$LoopLength}]";

	set ok [ analyze $NSteps]
	set h [expr $h + 1 ]
} 	
	
wipe all;